18
Properties=species:S:1:pos:R:3 pbc="F F F"
C        0.02413152       1.55307846       0.01008703
C       -0.00890798       0.02256334       0.00227006
C       -1.43047880      -0.55017297       0.01279125
C       -1.46506831      -2.08092517       0.00497856
C       -2.87868278      -2.64612823       0.01550431
O       -2.78713646      -4.06368637       0.00710799
H        1.05118639       1.93136586       0.00230286
H       -0.48872519       1.96492922      -0.86638881
H       -0.47187582       1.95554010       0.90051080
H        0.52426605      -0.35196864      -0.88144858
H        0.54099379      -0.36128483       0.87162372
H       -1.96419968      -0.17434107       0.89725850
H       -1.98094220      -0.16500717      -0.85728159
H       -0.94452672      -2.46597809      -0.88074516
H       -0.92770269      -2.47532598       0.87642673
H       -3.41591809      -2.28742454       0.90932317
H       -3.43287926      -2.27801544      -0.86401883
H       -3.67922866      -4.42224709       0.01366805
18
Properties=species:S:1:pos:R:3 pbc="F F F"
C       -0.04044328       1.53230625       0.03610531
C        0.06128988       0.00161548      -0.03007773
C        0.73580915      -0.44540325      -1.33543453
C        0.77105717      -0.54283657       1.22420763
C        0.75902228      -2.06837159       1.33670722
O        2.10705165      -0.04000854       1.20199403
H        0.95612753       1.98257282       0.04985464
H       -0.58339899       1.92678960      -0.82875757
H       -0.56745762       1.85781768       0.93987785
H       -0.95752227      -0.40941187      -0.00636348
H        1.77939855      -0.12010454      -1.35782184
H        0.71757830      -1.53243755      -1.45775678
H        0.22317827      -0.00966427      -2.19890471
H        0.23923046      -0.13272804       2.10031231
H        1.22093808      -2.38749782       2.27868430
H       -0.26529263      -2.45582155       1.32599196
H        1.31632242      -2.52985679       0.51707678
H        2.56579347      -0.37827561       1.97669529
18
Properties=species:S:1:pos:R:3 pbc="F F F"
C        0.07015952       1.50737896       0.00747886
C       -0.11140445       0.00147211      -0.09831586
O        0.71736682      -0.47199429      -1.13952336
C        0.77134655      -1.88632851      -1.28272749
C       -0.50071352      -2.44854106      -1.92639158
C        2.01283379      -2.18661681      -2.11629656
H        1.11386277       1.75377350       0.22228809
H       -0.20845439       1.99306785      -0.93213870
H       -0.55688362       1.91321435       0.80718831
H        0.15984159      -0.48690478       0.85353661
H       -1.16973777      -0.23645364      -0.28999007
H        0.89281015      -2.33939532      -0.28320916
H       -0.42088766      -3.53387490      -2.04542542
H       -1.38815643      -2.24716352      -1.31975454
H       -0.65186270      -2.00230757      -2.91479806
H        2.90416781      -1.77694160      -1.63401499
H        2.14543905      -3.26535114      -2.24168219
H        1.92161559      -1.73158116      -3.10782306
18
Properties=species:S:1:pos:R:3 pbc="F F F"
C       -0.03635549       1.51137140       0.04354733
C        0.01993846      -0.01651467      -0.02526995
C        0.72870880      -0.51842833      -1.27579930
O        0.73765400      -1.92874269      -1.26157740
C        1.37471321      -2.49608990      -2.38600517
C        1.32425847      -4.00964857      -2.26115128
H        0.96824380       1.94875646       0.05163846
H       -0.57242365       1.93102560      -0.81501429
H       -0.54992392       1.84550975       0.94964920
H        0.53860160      -0.41806766       0.85287763
H       -0.99267315      -0.43568717      -0.00780688
H        0.21665615      -0.14626441      -2.18144555
H        1.76159091      -0.12770207      -1.31328909
H        0.87475008      -2.16799567      -3.31393434
H        2.42050156      -2.14809460      -2.44822453
H        1.83419893      -4.33636476      -1.35040027
H        0.28783220      -4.35602701      -2.21532148
H        1.81093001      -4.48055812      -3.12057427
18
Properties=species:S:1:pos:R:3 pbc="F F F"
C        0.08703848       1.39437665       0.00872385
O       -0.03001724      -0.00899527       0.00240018
C       -1.35028024      -0.57467614       0.01194133
C       -2.13712157      -0.16623887      -1.24401296
C       -1.08852889      -2.08444943       0.00128594
C       -2.11294702      -0.17991501       1.28703546
H        1.15824847       1.61394298      -0.00014292
H       -0.36554214       1.86579975      -0.87537568
H       -0.34886389       1.85638956       0.90607211
H       -1.55871495      -0.39291000      -2.14471571
H       -3.08213427      -0.71569532      -1.29483470
H       -2.37894225       0.90057992      -1.24794530
H       -0.50392850      -2.37240869       0.87950229
H       -2.02831442      -2.64442639       0.00725423
H       -0.52086644      -2.36285268      -0.89101029
H       -2.35453224       0.88677570       1.30712204
H       -3.05687985      -0.72997631       1.34995636
H       -1.51746750      -0.41625302       2.17402290
18
Properties=species:S:1:pos:R:3 pbc="F F F"
C        0.02497974       1.56062132       0.12265048
C       -0.00504725       0.03831557      -0.04045818
C        0.69277535      -0.49773846      -1.30468243
C        0.65706431      -2.03319975      -1.30499253
C        0.06278446       0.05021503      -2.59397662
O        2.05252179      -0.05211373      -1.20197418
H        1.05085104       1.93161676       0.06090027
H       -0.56654190       2.06826041      -0.64572509
H       -0.38683204       1.84991086       1.09450895
H        0.48893635      -0.42410609       0.82225889
H       -1.04080334      -0.32208977      -0.03862314
H       -0.37058290      -2.41036437      -1.33508585
H        1.18255151      -2.43358342      -2.18027307
H        1.14514513      -2.42390160      -0.40754179
H        0.15710533       1.13742610      -2.64431310
H        0.56363838      -0.37269834      -3.47317106
H       -0.99836223      -0.21138553      -2.66262855
H        2.51963016      -0.34971056      -1.98959491
18
Properties=species:S:1:pos:R:3 pbc="F F F"
C       -0.05788346       1.52456368      -0.00541102
C        0.00675639      -0.00811341       0.04435851
C        0.84005828      -0.47227701       1.24876565
C       -1.41234686      -0.60109779       0.04239710
C       -1.47490689      -2.11718124      -0.09997997
O       -2.84416967      -2.48128575      -0.21469970
H        0.94470564       1.96300509      -0.04765076
H       -0.61510627       1.87225664      -0.88152850
H       -0.55719687       1.92381676       0.88555315
H        0.51494695      -0.35073516      -0.86928194
H        1.83361778      -0.01180092       1.23700608
H        0.35469239      -0.18805026       2.19043547
H        0.98160652      -1.55712322       1.26198473
H       -1.93761079      -0.31222477       0.96237440
H       -1.98533423      -0.17112214      -0.78813605
H       -0.90524726      -2.42893719      -0.99188616
H       -1.01157077      -2.60753496       0.76963098
H       -2.89595724      -3.44002475      -0.26562198
18
Properties=species:S:1:pos:R:3 pbc="F F F"
C       -0.07731414       1.53725819       0.05983728
C        0.01201183       0.01021023      -0.02480797
C        0.77200536      -0.51787430      -1.25414626
C        2.24771468      -0.09823154      -1.27390122
C        0.64144679      -2.03997919      -1.33380564
O        1.21929376      -2.48412498      -2.55394199
H        0.90851759       1.99848608       0.17071686
H       -0.54051344       1.95579090      -0.84078975
H       -0.68215770       1.84591468       0.91827039
H        0.48864820      -0.37777201       0.88646640
H       -1.00520587      -0.40316355      -0.03418898
H        0.28758564      -0.11619093      -2.15588712
H        2.75538405      -0.41857308      -0.35509164
H        2.75998889      -0.55971343      -2.12085197
H        2.36036403       0.98626536      -1.35625287
H        1.14666532      -2.49767745      -0.46621836
H       -0.42261741      -2.32154317      -1.27922185
H        1.20227021      -3.44509612      -2.56292162
18
Properties=species:S:1:pos:R:3 pbc="F F F"
C        0.06150574       1.55441864       0.02225072
C       -0.00768958       0.02593864       0.02090612
C       -1.43809984      -0.51687221      -0.00841119
C       -1.47181013      -2.04390316      -0.11741724
O       -2.07352903      -0.06138406       1.18228006
C       -3.47973314      -0.07391085       1.14810744
H        1.09714891       1.90327209       0.07822724
H       -0.38111078       1.97126307      -0.88979721
H       -0.48537776       1.96029182       0.87662750
H        0.53253677      -0.37761928      -0.84389136
H        0.48749726      -0.37223365       0.91554172
H       -1.96415309      -0.08374030      -0.87826181
H       -2.49627234      -2.42679717      -0.13146897
H       -0.98352970      -2.37359081      -1.04007316
H       -0.94943953      -2.49577122       0.73191865
H       -3.82903790       0.38127398       2.07878051
H       -3.87193742       0.51097355       0.30074419
H       -3.89714145      -1.08976408       1.08370373
18
Properties=species:S:1:pos:R:3 pbc="F F F"
C       -0.01318134       1.38958523      -0.00498292
O        0.00853638      -0.01568554      -0.01922536
C       -1.28164436      -0.58821400       0.01441030
C       -1.15971602      -2.11085773      -0.02874377
C       -2.53832442      -2.75898810       0.14609559
C       -0.47377386      -2.57646720      -1.31887485
H        1.02326059       1.73557746      -0.03125595
H       -0.54699213       1.80085623      -0.87700893
H       -0.49520713       1.78301733       0.90471586
H       -1.81229876      -0.27346056       0.93009368
H       -1.88094657      -0.23198158      -0.84382317
H       -0.52754567      -2.40025447       0.82143130
H       -3.21110814      -2.48262468      -0.67469351
H       -2.45761672      -3.85038395       0.15113439
H       -3.01320541      -2.45394495       1.08479708
H       -1.08831501      -2.33438513      -2.19492823
H        0.49490682      -2.08667425      -1.44076037
H       -0.31717319      -3.66006002      -1.31261357
18
Properties=species:S:1:pos:R:3 pbc="F F F"
C       -0.02047263       1.55153700       0.01283361
C        0.01149068       0.02092893      -0.01413966
C        0.71627971      -0.53865512      -1.25383066
C        0.74782406      -2.06027239      -1.28065086
O        1.41285692      -2.48199865      -2.45205190
C        1.49066871      -3.88082694      -2.56377747
H        0.99278166       1.96810518       0.00598468
H       -0.54672110       1.95124797      -0.86097849
H       -0.52842541       1.92465817       0.90757606
H        0.51280296      -0.34983182       0.88981494
H       -1.01512622      -0.36654779       0.02870859
H        0.21644341      -0.18347866      -2.16347615
H        1.74734636      -0.16695745      -1.30054880
H        1.26494494      -2.45017625      -0.38553428
H       -0.27919289      -2.46685013      -1.25618072
H        2.04506727      -4.33036096      -1.72376135
H        0.49233273      -4.34681783      -2.59896878
H        2.01743892      -4.10809202      -3.49405463
18
Properties=species:S:1:pos:R:3 pbc="F F F"
C       -0.00808502       1.54340524       0.01118985
C        0.01905565       0.00440593       0.00534280
C        0.75962792      -0.51064961       1.25255183
C       -1.41784493      -0.54334459      -0.01234925
C        0.73543414      -0.49253765      -1.25998189
O        2.06863602      -0.00049296      -1.26884537
H        1.00567912       1.94936665      -0.02304461
H       -0.55623050       1.93079686      -0.85537703
H       -0.50138472       1.91989744       0.91364345
H        0.27410060      -0.15459811       2.16742987
H        0.76568658      -1.60634518       1.28237503
H        1.79714904      -0.16824908       1.25658174
H       -1.96900381      -0.19459764      -0.89313331
H       -1.42903811      -1.63924535      -0.02021266
H       -1.96753904      -0.21259052       0.87506839
H        0.72408608      -1.59486014      -1.27369902
H        0.18336763      -0.14569647      -2.14901351
H        2.50296962      -0.32025621      -2.06419563
18
Properties=species:S:1:pos:R:3 pbc="F F F"
C        0.02186298       1.56857736      -0.00914763
C        0.00120860       0.03814749      -0.00335820
C       -1.41407004      -0.54559284       0.04560638
C       -1.44857553      -2.07795433      -0.02197299
C       -2.86622235      -2.63656333       0.10592973
O       -0.81088753      -2.56515017      -1.20320328
H        1.04600832       1.95361773      -0.04016189
H       -0.50967245       1.96956516      -0.87978756
H       -0.46007698       1.97782045       0.88613240
H        0.50925165      -0.35068017      -0.89218770
H        0.57144698      -0.33362427       0.85842818
H       -1.92279706      -0.21793654       0.96241490
H       -2.00967279      -0.14486536      -0.78980714
H       -0.83403269      -2.47852940       0.79486781
H       -3.51028647      -2.24676486      -0.69285671
H       -2.85341974      -3.72733328       0.03134725
H       -3.31972868      -2.35752411       1.06261739
H       -1.33907027      -2.27511133      -1.95567511
18
Properties=species:S:1:pos:R:3 pbc="F F F"
C       -0.00426061       1.56021212       0.08326620
C       -0.00837614       0.03266085      -0.00994213
C        0.71155133      -0.50056721      -1.25520266
O        2.06438559      -0.04345589      -1.30992933
C        0.63312348      -2.02845018      -1.36804474
C        1.28263454      -2.57487789      -2.64149537
H        1.01854063       1.94421531       0.04854675
H       -0.55274795       2.00603764      -0.75395433
H       -0.47298008       1.90385752       1.01029891
H        0.47084772      -0.39853476       0.88190941
H       -1.03916723      -0.34380291      -0.01059282
H        0.24701960      -0.05742234      -2.14714870
H        2.52142354      -0.40703834      -0.54253320
H        1.11542087      -2.46918151      -0.48253104
H       -0.42044858      -2.33169939      -1.32032242
H        0.76043336      -2.21380842      -3.53450757
H        2.32281907      -2.24674677      -2.71313623
H        1.26131920      -3.66864251      -2.66160290
